New England/MatPower Cases/Hard/Summer90Generous.m
% Case saved by PowerWorld Simulator, version 19, build date July 14, 2016
function mpc = Summer90
mpc.version = '2';
mpc.baseMVA =  100.00;

%% bus data 
mpc.bus = [
      1 2      0.00     0.00      0.00     0.00    1 1.0200000     2.24565  345.00   1   1.100   0.980    27.96     0.00 0  0
      2 1    125.80    41.26      0.00     0.00    1 1.0204299   -16.07951  345.00   1   1.060   0.920    27.82     0.10 0  0
      3 2      0.00     0.00      0.00     0.00    1 1.0200000    -3.52056  138.00   1   1.100   0.980    26.43     0.00 0  0
      4 1    116.47    32.98      0.00    10.00    1 0.9887416   -20.18503  138.00   1   1.060   0.920    31.77    -0.03 0  0
      5 1    132.84    47.26      0.00     0.00    1 0.9932171   -14.59696  230.00   1   1.060   0.920    31.92     0.00 0  0
      6 1    120.02    38.74      0.00     0.00    1 1.0002177    -8.83064  138.00   1   1.060   0.920    32.24    -0.01 0  0
      7 2    200.46    69.72      0.00     0.00    1 1.0200000   -10.41161  138.00   1   1.100   0.980    31.93     0.00 0  0
      8 2    165.69    48.17      0.00     0.00    1 1.0200000    -8.47784  230.00   1   1.100   0.980    31.91     0.00 0  0
      9 1      0.00     0.00      0.00     0.00    1 1.0262063   -10.64399  345.00   1   1.060   0.920    31.91    -0.00 0  0
     10 3    123.49    40.53      0.00     0.00    1 1.0200000     0.00000  138.00   1   1.100   0.980    32.40     0.00 0  0
     11 1      0.00     0.00      0.00     0.00    1 1.0156457    -1.44568  138.00   1   1.060   0.920    32.40     0.00 0  0
     12 1      3.69     1.36      0.00     0.00    1 1.0143823    -2.46561  138.00   1   1.060   0.920    32.40     0.00 0  0
     13 1      0.00     0.00      0.00     0.00    1 1.0141036    -5.04050  345.00   1   1.060   0.920    32.40     0.00 0  0
     14 1    161.43    54.60      0.00     0.00    1 1.0081225   -13.96311  230.00   1   1.060   0.920    32.38     0.01 0  0
     15 1    196.23    57.03      0.00     0.00    1 0.9905385   -17.98466  230.00   1   1.060   0.920    32.25     0.04 0  0
     16 1    226.81    62.26      0.00     0.00    1 0.9997172   -25.35025  138.00   1   1.060   0.920    32.21     0.06 0  0
     17 1    120.86    32.63      0.00    30.00    1 0.9918293   -27.06267  138.00   1   1.060   0.920    31.31     0.18 0  0
     18 1    138.25    41.53      0.00    40.00    1 0.9928897   -20.81484  138.00   1   1.060   0.920    28.76     0.92 0  0
     19 1    143.29    36.68      0.00     0.00    1 0.9943206   -21.95532  138.00   1   1.060   0.920    33.17     0.06 0  0
     20 1    139.71    38.00      0.00     0.00    1 0.9896319   -13.34297   69.00   1   1.060   0.920    33.17     0.03 0  0
     21 1    199.21    51.94      0.00    30.00    1 1.0015870   -29.11980  138.00   1   1.060   0.920    33.25     0.19 0  0
     22 1    178.29    50.83      0.00     0.00    1 0.9954783   -15.71755  230.00   1   1.060   0.920    29.38     0.01 0  0
     23 1    134.32    43.91      0.00     0.00    1 1.0013842   -14.74671  230.00   1   1.060   0.920    30.22    -0.02 0  0
     24 2    163.83    56.35      0.00     0.00    1 1.0200000   -17.91690  230.00   1   1.100   0.980    32.33     0.00 0  0
     25 1     86.93    27.99      0.00     0.00    1 1.0084398   -17.09449  230.00   1   1.060   0.920    53.93    -1.41 0  0
     26 2    105.21    29.56      0.00     0.00    1 1.0200003   -24.43221  345.00   1   1.100   0.980    29.86     0.00 0  0
     27 1    132.77    42.44      0.00    20.00    1 1.0023949   -28.99624  230.00   1   1.060   0.920    30.97     0.02 0  0
     28 2    166.57    53.95      0.00     0.00    1 1.0200006    -3.43995  138.00   1   1.100   0.980    30.83     0.00 0  0
     29 1    102.46    33.02      0.00     0.00    1 1.0077766     6.56074  138.00   1   1.060   0.920    30.82     0.00 0  0
     30 2      0.00     0.00      0.00     0.00    1 1.0200002   -13.96424   14.00   1   1.100   0.980    27.82     0.00 0  0
     31 2      0.00     0.00      0.00     0.00    1 1.0200000     0.27224   14.00   1   1.100   0.980    32.24     0.00 0  0
     32 2      0.00     0.00      0.00     0.00    1 1.0200000     6.08249   14.00   1   1.100   0.980    32.40     0.00 0  0
     33 2    185.97    45.87      0.00     0.00    1 1.0200004   -19.21669   14.00   1   1.100   0.980    33.16     0.00 0  0
     34 2    114.38    35.19      0.00     0.00    1 1.0200030    -4.37576   14.00   1   1.100   0.980    33.16     0.00 0  0
     35 2      0.00     0.00      0.00     0.00    1 1.0200001    -6.65408   14.00   1   1.100   0.980    29.38     0.00 0  0
     36 2      0.00     0.00      0.00     0.00    1 1.0199999    -7.51266   14.00   1   1.100   0.980    30.24     0.00 0  0
     37 2      0.00     0.00      0.00     0.00    1 1.0200007   -11.19155   14.00   1   1.100   0.980    53.97     0.00 0  0
     38 2      0.00     0.00      0.00     0.00    1 1.0200005    12.65523   14.00   1   1.100   0.980    30.83     0.00 0  0
     39 1     99.53    31.43      0.00     0.00    1 1.0131914   -22.83901  345.00   1   1.060   0.920    28.92     0.15 0  0
     40 1    100.07    29.37      0.00     0.00    1 1.0062745   -26.35098  345.00   1   1.060   0.920    29.66     0.03 0  0
     41 1    130.19    39.28      0.00    20.00    1 1.0095239   -28.43856  345.00   1   1.060   0.920    30.93     0.00 0  0
     42 1    144.64    44.04      0.00     0.00    1 1.0074238   -22.48065  345.00   1   1.060   0.920    30.09    -0.02 0  0
     43 1    133.63    41.62      0.00     0.00    1 1.0140906   -25.08575  345.00   1   1.060   0.920    29.68     0.03 0  0
     44 1    114.55    38.19      0.00     0.00    1 1.0070468   -11.83031  230.00   1   1.060   0.920    31.89     0.01 0  0
     45 1    167.52    54.54      0.00     0.00    1 1.0122424    -9.84521  345.00   1   1.060   0.920    31.88    -0.00 0  0
     46 1    150.20    45.90      0.00    50.00    1 0.9872473   -19.36590  138.00   1   1.060   0.920    31.92    -0.00 0  0
     47 1    134.35    38.33      0.00    50.00    1 0.9707487   -26.46528  138.00   1   1.060   0.920    31.89    -0.01 0  0
     48 1    162.42    46.33      0.00    40.00    1 0.9876852   -20.88085  345.00   1   1.060   0.920    31.72    -0.05 0  0
     49 2    104.15    33.19      0.00     0.00    1 1.0200000   -10.87864  138.00   1   1.100   0.980    31.88     0.00 0  0
     50 1    157.97    45.09      0.00    30.00    1 0.9843088   -17.99884  138.00   1   1.060   0.920    31.85    -0.01 0  0
     51 1    130.98    45.57      0.00     0.00    1 0.9742379   -21.98237  138.00   1   1.060   0.920    31.90    -0.01 0  0
     52 2    169.47    55.05      0.00     0.00    1 1.0200000    -8.11273  345.00   1   1.100   0.980    31.87     0.00 0  0
     53 1    249.85    77.39      0.00     0.00    1 0.9709845   -21.48096  138.00   1   1.060   0.920    31.91    -0.01 0  0
     54 2    110.80    39.77      0.00     0.00    1 1.0200000    -7.55176  230.00   1   1.100   0.980    31.91     0.00 0  0
     55 1    161.13    48.00      0.00     0.00    1 1.0011537   -13.63639  230.00   1   1.060   0.920    31.91     0.02 0  0
     56 2    182.63    53.88      0.00     0.00    1 1.0200000   -13.80962  345.00   1   1.100   0.980    32.26     0.00 0  0
     57 1     96.26    32.04      0.00    50.00    1 0.9797543   -24.90325  138.00   1   1.060   0.920    31.97    -0.02 0  0
     58 1    205.60    63.93      0.00     0.00    1 0.9895265   -15.05261  345.00   1   1.060   0.920    32.35    -0.01 0  0
     59 1    127.13    40.08      0.00     0.00    1 1.0048877   -17.88307  345.00   1   1.060   0.920    32.23     0.02 0  0
     60 1    145.29    46.01      0.00    90.00    1 0.9851427   -24.93693  138.00   1   1.060   0.920    32.01    -0.05 0  0
     61 1    173.42    50.53      0.00     0.00    1 0.9961822   -20.82671  230.00   1   1.060   0.920    32.25     0.07 0  0
     62 1    161.96    55.92      0.00     0.00    1 0.9781596   -16.41364  345.00   1   1.060   0.920    32.34    -0.01 0  0
     63 1    124.46    46.01      0.00    40.00    1 0.9788597   -25.10602  138.00   1   1.060   0.920    31.90    -0.02 0  0
     64 1    263.14    80.55      0.00    70.00    1 0.9877471   -21.05476  138.00   1   1.060   0.920    32.16    -0.05 0  0
     65 1    107.81    40.75      0.00     0.00    1 0.9935677   -15.54450  138.00   1   1.060   0.920    31.87    -0.01 0  0
     66 1    124.57    45.10      0.00     0.00    1 0.9947316   -14.82792  345.00   1   1.060   0.920    32.38    -0.00 0  0
     67 1    147.97    43.36      0.00    30.00    1 0.9647803   -21.97975  138.00   1   1.060   0.920    31.89    -0.01 0  0
     68 1    177.42    59.44      0.00     0.00    1 0.9741626   -19.61425  138.00   1   1.060   0.920    31.90    -0.01 0  0
     69 2     99.42    38.52      0.00     0.00    1 1.0200000    -4.97389  345.00   1   1.100   0.980    32.41     0.00 0  0
     70 1    140.19    47.02      0.00     0.00    1 0.9905257    -6.68090  138.00   1   1.060   0.920    32.33    -0.02 0  0
     71 1    109.02    39.73      0.00     0.00    1 1.0042641   -14.03094  345.00   1   1.060   0.920    32.41    -0.00 0  0
     72 2     96.34    35.88      0.00     0.00    1 0.9787596   -21.88865  138.00   1   1.100   0.980    31.90    -0.01 0  0
     73 1    117.99    37.53      0.00     0.00    1 0.9759173   -22.12275  138.00   1   1.060   0.920    31.91    -0.01 0  0
     74 1    129.00    39.37      0.00     0.00    1 0.9945377   -16.62092  345.00   1   1.060   0.920    31.76    -0.04 0  0
     75 1    137.40    41.01      0.00    50.00    1 0.9858733   -21.28730  138.00   1   1.060   0.920    31.80    -0.03 0  0
     76 2    187.26    48.40      0.00     0.00    1 1.0200000   -12.58434  345.00   1   1.100   0.980    32.45     0.00 0  0
     77 1    103.22    29.37      0.00    10.00    1 1.0061766    -6.00460  138.00   1   1.060   0.920    30.72     0.01 0  0
     78 2    126.85    37.77      0.00     0.00    1 1.0200005   -15.50769  345.00   1   1.100   0.980    30.42     0.00 0  0
     79 1    169.25    45.84      0.00     0.00    1 1.0264071   -18.66979  345.00   1   1.060   0.920    30.47    -0.01 0  0
     80 2    135.67    36.45      0.00     0.00    1 1.0200004    -4.63404  345.00   1   1.100   0.980    30.64     0.00 0  0
     81 1    146.16    34.76      0.00     0.00    1 1.0162969    -5.96045  345.00   1   1.060   0.920    30.64     0.00 0  0
     82 2    102.37    29.21      0.00     0.00    1 1.0200006    -3.24027  345.00   1   1.100   0.980    30.68     0.00 0  0
     83 1    107.45    30.99      0.00     0.00    1 1.0193424    -5.00781  345.00   1   1.060   0.920    30.68     0.00 0  0
     84 2     82.59    26.69      0.00     0.00    1 1.0200004    -0.22404  138.00   1   1.100   0.980    30.72     0.00 0  0
     85 1     91.31    26.44      0.00    40.00    1 1.0043532   -12.95671  230.00   1   1.060   0.920    30.92     0.06 0  0
     86 1    140.16    34.16      0.00    40.00    1 1.0007752   -12.17966  138.00   1   1.060   0.920    30.80     0.03 0  0
     87 1    158.51    40.36      0.00     0.00    1 1.0312930   -15.44629  345.00   1   1.060   0.920    30.54    -0.02 0  0
     88 1    126.53    42.35      0.00     0.00    1 1.0118166    -5.62167  138.00   1   1.060   0.920    30.83     0.00 0  0
     89 1     99.92    32.36      0.00    50.00    1 1.0043121   -11.83616  138.00   1   1.060   0.920    30.67     0.01 0  0
     90 1    112.26    37.13      0.00     0.00    1 0.9860111   -15.93181  230.00   1   1.060   0.920    30.19    -0.04 0  0
     91 1    135.13    43.19      0.00    50.00    1 0.9865693   -19.08888  230.00   1   1.060   0.920    30.14    -0.02 0  0
     92 1    126.99    33.33      0.00    30.00    1 0.9882556   -21.32447  345.00   1   1.060   0.920    33.35     0.12 0  0
     93 1    142.85    42.79      0.00    10.00    1 0.9896930   -21.60862  345.00   1   1.060   0.920    33.24     0.11 0  0
     94 1    176.44    53.78      0.00     0.00    1 0.9952131   -24.24357  138.00   1   1.060   0.920    33.07     0.04 0  0
     95 1    160.26    46.98      0.00    50.00    1 0.9863168   -25.94061  138.00   1   1.060   0.920    33.06     0.09 0  0
     96 1    182.88    52.79      0.00    50.00    1 0.9855867   -25.78431  138.00   1   1.060   0.920    33.00     0.13 0  0
     97 1    180.61    36.42      0.00     0.00    1 0.9949017   -22.35377  345.00   1   1.060   0.920    32.86     0.12 0  0
     98 1    187.79    47.30      0.00     0.00    1 1.0121893   -22.21640  345.00   1   1.060   0.920    32.67     0.10 0  0
     99 1    179.50    49.22      0.00    10.00    1 0.9938727   -23.52595  345.00   1   1.060   0.920    33.12     0.11 0  0
    100 1    141.51    41.86      0.00    30.00    1 0.9843403   -16.18572  138.00   1   1.060   0.920    32.76     0.01 0  0
    101 1    133.50    39.26      0.00    30.00    1 0.9875331   -22.22721  345.00   1   1.060   0.920    33.25     0.12 0  0
    102 1     90.97    36.43      0.00     0.00    1 0.9853767   -25.90144  138.00   1   1.060   0.920    33.10     0.07 0  0
    103 2    207.40    59.16      0.00     0.00    1 1.0200000   -19.25765  138.00   1   1.100   0.980    33.07     0.00 0  0
    104 1    152.40    41.63      0.00    60.00    1 0.9916230   -27.13629  138.00   1   1.060   0.920    33.19     0.09 0  0
    105 1    115.79    34.36      0.00    10.00    1 0.9911311   -24.49617  138.00   1   1.060   0.920    33.17     0.07 0  0
    106 1    116.05    35.22      0.00    20.00    1 0.9863111   -27.01286  138.00   1   1.060   0.920    33.28     0.10 0  0
    107 1    134.31    42.18      0.00    40.00    1 0.9913236   -26.55604  138.00   1   1.060   0.920    33.18     0.13 0  0
    108 1    217.66    58.99      0.00    60.00    1 0.9975081   -27.40964  230.00   1   1.060   0.920    33.23     0.15 0  0
    109 1    164.00    49.89      0.00    20.00    1 0.9899480   -27.07944  138.00   1   1.060   0.920    33.46    -0.01 0  0
    110 1     92.51    34.91      0.00    10.00    1 0.9832990   -23.16620  138.00   1   1.060   0.920    33.18     0.06 0  0
    111 1    158.77    50.71      0.00    10.00    1 0.9969884   -23.56438  345.00   1   1.060   0.920    33.13     0.12 0  0
    112 1    211.69    54.72      0.00    50.00    1 0.9992847   -31.54620  138.00   1   1.060   0.920    33.25     0.21 0  0
    113 1     90.53    30.85      0.00    50.00    1 0.9988711   -33.08924  138.00   1   1.060   0.920    33.28     0.20 0  0
    114 1     93.95    32.82      0.00    30.00    1 0.9892656   -26.11930  138.00   1   1.060   0.920    33.14     0.08 0  0
    115 1    105.15    34.11      0.00    10.00    1 0.9902631   -20.53331  345.00   1   1.060   0.920    33.34     0.12 0  0
    116 1    190.93    48.93      0.00     0.00    1 0.9970656   -22.26666  230.00   1   1.060   0.920    36.66    -1.48 0  0
    117 1    146.69    46.55      0.00     0.00    1 0.9863215   -23.01675  138.00   1   1.060   0.920    32.06     0.25 0  0
    118 1     92.64    29.95      0.00    20.00    1 0.9927507   -25.17486  138.00   1   1.060   0.920    33.21     0.10 0  0
    119 1    181.74    46.47      0.00    20.00    1 0.9901475   -26.30933  138.00   1   1.060   0.920    33.23     0.11 0  0
    120 2    115.60    39.21      0.00     0.00    1 1.0200005   -21.91715  230.00   1   1.100   0.980    34.36     0.00 0  0
    121 1    138.47    43.65      0.00     0.00    1 1.0119577   -22.67950  230.00   1   1.060   0.920    34.38     0.00 0  0
    122 1    115.49    38.04      0.00    20.00    1 0.9772545   -26.34954  138.00   1   1.060   0.920    32.62     0.27 0  0
    123 1    165.91    42.97      0.00     0.00    1 0.9981015   -21.10359  230.00   1   1.060   0.920    25.12     1.04 0  0
    124 1    168.58    41.98      0.00    90.00    1 0.9999228   -28.90419  230.00   1   1.060   0.920    34.11     0.25 0  0
    125 1    175.60    52.68      0.00    40.00    1 1.0022820   -29.95407  138.00   1   1.060   0.920    33.15     0.27 0  0
    126 1    147.49    38.26      0.00    20.00    1 0.9984103   -26.74885  230.00   1   1.060   0.920    33.62     0.10 0  0
    127 1    169.22    45.75      0.00    40.00    1 0.9958869   -27.23514  230.00   1   1.060   0.920    33.41     0.25 0  0
    128 2    182.85    48.09      0.00     0.00    1 1.0199999   -24.17356  138.00   1   1.100   0.980    32.43     0.00 0  0
    129 1    140.82    41.19      0.00    60.00    1 0.9976998   -31.22125  138.00   1   1.060   0.920    33.23     0.22 0  0
    130 2    149.53    45.17      0.00     0.00    1 1.0199999   -25.92915  138.00   1   1.100   0.980    32.91     0.00 0  0
    131 1    201.82    55.81      0.00    50.00    1 0.9988190   -31.57553  138.00   1   1.060   0.920    33.23     0.24 0  0
    132 1    187.61    41.18      0.00    30.00    1 1.0023218   -25.57298  230.00   1   1.060   0.920    34.75     0.48 0  0
    133 1    123.60    39.27      0.00    20.00    1 1.0021330   -23.50342  230.00   1   1.060   0.920    42.24    -1.64 0  0
    134 1    144.83    41.36      0.00    40.00    1 0.9985775   -26.82665  230.00   1   1.060   0.920    34.32     0.41 0  0
    135 1    108.62    35.83      0.00     0.00    1 1.0095246   -25.21361  345.00   1   1.060   0.920    32.87     0.18 0  0
    136 1    132.70    41.73      0.00    50.00    1 0.9911544   -26.41977  138.00   1   1.060   0.920    33.18     0.08 0  0
    137 1    107.61    34.52      0.00     0.00    1 1.0137233   -24.27006  345.00   1   1.060   0.920    32.79     0.13 0  0
    138 1    178.71    48.12      0.00    20.00    1 0.9947077   -23.76687  345.00   1   1.060   0.920    33.14     0.12 0  0
    139 1    155.21    45.40      0.00     0.00    1 1.0066113   -18.02073  345.00   1   1.060   0.920    27.78     0.09 0  0
    140 1    201.87    51.28      0.00     0.00    1 0.9940412   -13.77703  138.00   1   1.060   0.920    32.76     0.00 0  0
    141 2    183.82    52.53      0.00     0.00    1 1.0200004    -8.06293  345.00   1   1.100   0.980    32.83     0.00 0  0
    142 1    124.43    43.35      0.00    60.00    1 1.0020142   -28.30469  230.00   1   1.060   0.920    34.35     0.30 0  0
    143 2    175.16    48.92      0.00     0.00    1 1.0028590   -22.17380  230.00   1   1.100   0.980    32.25     0.07 0  0
    144 1    206.21    59.82      0.00     0.00    1 0.9871180   -24.29887  230.00   1   1.060   0.920    32.25     0.07 0  0
    145 1    162.40    53.25      0.00    10.00    1 0.9800605   -28.71237  138.00   1   1.060   0.920    31.98    -0.00 0  0
    146 2    173.39    52.08      0.00     0.00    1 1.0197279   -23.32569  345.00   1   1.100   0.980    32.76     0.11 0  0
    147 1    112.90    34.93      0.00    30.00    1 0.9947481   -27.49895  138.00   1   1.060   0.920    33.25     0.13 0  0
    148 1    128.82    37.99      0.00    10.00    1 0.9899758   -21.21596  345.00   1   1.060   0.920    33.27     0.12 0  0
    149 2    212.08    53.10      0.00     0.00    1 1.0199999   -26.81884  138.00   1   1.100   0.980    32.13     0.00 0  0
    150 1    154.41    46.03      0.00    50.00    1 0.9845873   -23.13125  345.00   1   1.060   0.920    31.71    -0.05 0  0
    151 1    131.99    43.40      0.00     0.00    1 1.0164128   -23.94301  345.00   1   1.060   0.920    32.78     0.13 0  0
    152 1    108.39    30.52      0.00    50.00    1 0.9978957   -31.76633  138.00   1   1.060   0.920    33.26     0.20 0  0
    153 1    124.33    41.77      0.00     0.00    1 1.0075081   -25.62669  345.00   1   1.060   0.920    32.90     0.21 0  0
    154 1    151.55    47.79      0.00    60.00    1 0.9966261   -23.04519  230.00   1   1.060   0.920    31.09     0.05 0  0
    155 1    140.29    47.03      0.00    40.00    1 0.9821559   -23.84807  138.00   1   1.060   0.920    30.89     0.04 0  0
    156 1    144.07    47.61      0.00     0.00    1 1.0019503   -14.94226  345.00   1   1.060   0.920    30.81     0.05 0  0
    157 2    144.04    43.01      0.00     0.00    1 1.0200005   -15.89866  138.00   1   1.100   0.980    31.27     0.00 0  0
    158 1    143.21    37.61      0.00    20.00    1 0.9870824   -22.65610  138.00   1   1.060   0.920    31.34    -0.01 0  0
    159 1    149.71    35.56      0.00    30.00    1 1.0129773   -25.32081  345.00   1   1.060   0.920    31.07     0.02 0  0
    160 1    180.10    63.08      0.00    40.00    1 0.9820909   -29.02461  230.00   1   1.060   0.920    30.99     0.02 0  0
    161 1     97.54    33.66      0.00    20.00    1 0.9941234   -21.80228  138.00   1   1.060   0.920    31.28    -0.00 0  0
    162 2    137.52    43.61      0.00     0.00    1 1.0200003   -15.20941  345.00   1   1.100   0.980    30.90     0.00 0  0
    163 1    170.17    54.07      0.00     0.00    1 1.0045606   -21.35445  230.00   1   1.060   0.920    31.71     0.21 0  0
    164 1    131.06    48.79      0.00    20.00    1 0.9751565   -23.09482  138.00   1   1.060   0.920    31.72     0.21 0  0
    165 2    139.96    35.76      0.00     0.00    1 1.0200003   -13.03616  230.00   1   1.100   0.980    30.10     0.00 0  0
    166 2    130.69    39.38      0.00     0.00    1 1.0200002   -16.10100  138.00   1   1.100   0.980    31.37     0.00 0  0
    167 1    131.22    35.02      0.00     0.00    1 1.0113813   -16.50486  345.00   1   1.060   0.920    30.36    -0.02 0  0
    168 1     88.08    32.34      0.00    20.00    1 0.9871990   -19.29224  230.00   1   1.060   0.920    54.52    -1.35 0  0
    169 1    134.58    39.60      0.00    30.00    1 0.9947302   -17.76098  138.00   1   1.060   0.920    30.89     0.04 0  0
    170 1    156.27    47.55      0.00    90.00    1 0.9792961   -19.24791  138.00   1   1.060   0.920    32.63     0.04 0  0
    171 1    135.87    49.52      0.00    50.00    1 0.9807187   -18.63748  138.00   1   1.060   0.920    32.69     0.02 0  0
    172 1    157.62    46.25      0.00    10.00    1 0.9757974   -12.95996  138.00   1   1.060   0.920    32.48     0.03 0  0
    173 1    139.61    47.99      0.00    10.00    1 0.9657214   -12.40666  138.00   1   1.060   0.920    32.46     0.03 0  0
    174 1    168.19    54.29      0.00     0.00    1 1.0045336   -16.68688  345.00   1   1.060   0.920    32.49     0.05 0  0
    175 2    135.71    39.16      0.00     0.00    1 1.0200000   -14.64307  138.00   1   1.100   0.980    32.59     0.00 0  0
    176 2    165.08    49.91      0.00     0.00    1 1.0200000   -22.89149  345.00   1   1.100   0.980    32.74     0.00 0  0
    177 1    233.62    77.72      0.00     0.00    1 1.0035256   -19.20740  230.00   1   1.060   0.920    32.41     0.02 0  0
    178 1    125.16    39.63      0.00     0.00    1 0.9746874   -23.68551  138.00   1   1.060   0.920    32.56     0.07 0  0
    179 1     11.68     3.37      0.00     0.00    1 0.9731875   -23.79429  138.00   1   1.060   0.920    32.56     0.07 0  0
    180 1     17.34     5.07      0.00     0.00    1 1.0042507   -16.77290  345.00   1   1.060   0.920    32.49     0.05 0  0
    181 1      0.00     0.00      0.00     0.00    1 1.0276018    -9.47646  345.00   1   1.060   0.920    29.76    -0.33 0  0
    182 1      0.00     0.00      0.00     0.00    1 0.9968174   -16.45470  345.00   1   1.060   0.920    31.74    -0.04 0  0
    183 1      0.00     0.00      0.00     0.00    1 1.0061804   -12.57589  345.00   1   1.060   0.920    31.83    -0.02 0  0
    184 1      0.00     0.00      0.00     0.00    1 1.0000388   -11.50749  230.00   1   1.060   0.920    32.22    -0.01 0  0
    185 1      0.00     0.00      0.00     0.00    1 1.0064068   -12.30376  345.00   1   1.060   0.920    32.29    -0.01 0  0
    186 1      0.00     0.00      0.00     0.00    1 0.9998152   -13.80695  345.00   1   1.060   0.920    31.90    -0.01 0  0
    187 1      0.00     0.00      0.00     0.00    1 1.0160599   -10.56148  345.00   1   1.060   0.920    31.91    -0.00 0  0
    188 1      0.00     0.00      0.00     0.00    1 1.0150283    -4.37653  345.00   1   1.060   0.920    32.40     0.00 0  0
    189 1      0.00     0.00      0.00     0.00    1 1.0148993    -5.10268  345.00   1   1.060   0.920    32.40     0.00 0  0
    190 1      0.00     0.00      0.00     0.00    1 1.0110790   -11.55740  345.00   1   1.060   0.920    32.39     0.01 0  0
    191 1      0.00     0.00      0.00     0.00    1 1.0115509   -16.82467  345.00   1   1.060   0.920    32.22     0.01 0  0
    192 1      0.00     0.00      0.00     0.00    1 1.0008651   -22.83125  230.00   1   1.060   0.920    32.33     0.14 0  0
    193 1      0.00     0.00      0.00     0.00    1 1.0088441   -21.09523  345.00   1   1.060   0.920    32.12     0.03 0  0
    194 1      0.00     0.00      0.00     0.00    1 1.0100674   -22.62402  345.00   1   1.060   0.920    31.87     0.02 0  0
    195 1      0.00     0.00      0.00    20.00    1 1.0015970   -25.46990  230.00   1   1.060   0.920    33.21     0.15 0  0
    196 1      0.00     0.00      0.00    20.00    1 0.9986605   -23.37075  345.00   1   1.060   0.920    33.15     0.13 0  0
    197 1      0.00     0.00      0.00    30.00    1 1.0050028   -26.76377  230.00   1   1.060   0.920    33.49     0.32 0  0
    198 1      0.00     0.00      0.00    20.00    1 1.0029229   -24.69268  345.00   1   1.060   0.920    33.30     0.18 0  0
    199 1      0.00     0.00      0.00     0.00    1 0.9942902   -19.53125  345.00   1   1.060   0.920    33.33     0.12 0  0
    200 1      0.00     0.00      0.00     0.00    1 1.0078577   -19.23548  345.00   1   1.060   0.920    32.56     0.07 0  0
...
];

%% generator data 
mpc.gen = [
      1    272.78    -73.39    103.00   -103.00  1.0200    100.00 1    338.00      3.00     81.31   9999.90   -500.00   1500.00   -500.00   1500.00 0 0 0 0   0.0000 0 0 0 0
      3    553.63     22.08    392.00   -209.00  1.0200    100.00 1    686.00    298.00      0.00      0.00      0.00      0.00      0.00      0.00 0 0 0 0   0.0000 0 0 0 0
      7    543.94    210.46    385.00   -205.00  1.0200    100.00 1    674.00    139.00      0.00      0.00      0.00      0.00      0.00      0.00 0 0 0 0   0.0000 0 0 0 0
      8    493.10    169.77    349.00   -186.00  1.0200    100.00 1    611.00    189.00      0.00      0.00      0.00      0.00      0.00      0.00 0 0 0 0   0.0000 0 0 0 0
     10   2167.77    326.83   1298.00   -692.00  1.0200    100.00 1   2271.00   1406.00      0.00      0.00      0.00      0.00      0.00      0.00 0 0 0 0   0.0000 0 0 0 0
     24    436.61    244.74    309.00   -165.00  1.0200    100.00 1    541.00    288.00      0.00      0.00      0.00      0.00      0.00      0.00 0 0 0 0   0.0000 0 0 0 0
     26    242.11     51.70    171.00    -91.00  1.0200    100.00 1    300.00    120.00      0.00      0.00      0.00      0.00      0.00      0.00 0 0 0 0   0.0000 0 0 0 0
     28    477.76     95.05    338.00   -180.00  1.0200    100.00 1    592.00    216.00      0.00      0.00      0.00      0.00      0.00      0.00 0 0 0 0   0.0000 0 0 0 0
     30    212.25      1.50    150.00    -80.00  1.0200    100.00 1    263.00    125.00      0.00      0.00      0.00      0.00      0.00      0.00 0 0 0 0   0.0000 0 0 0 0
     31    645.63    132.10    457.00   -244.00  1.0200    100.00 1    800.00    241.00      0.00      0.00      0.00      0.00      0.00      0.00 0 0 0 0   0.0000 0 0 0 0
     32    551.21     29.28    390.00   -208.00  1.0200    100.00 1    683.00    163.00      0.00      0.00      0.00      0.00      0.00      0.00 0 0 0 0   0.0000 0 0 0 0
     33    535.87    221.24    379.00   -202.00  1.0200    100.00 1    664.00    379.00      0.00      0.00      0.00      0.00      0.00      0.00 0 0 0 0   0.0000 0 0 0 0
     34    998.30    231.64    707.00   -377.00  1.0200    100.00 1   1237.00    295.00      0.00      0.00      0.00      0.00      0.00      0.00 0 0 0 0   0.0000 0 0 0 0
     35   1118.55    263.56    792.00   -422.00  1.0200    100.00 1   1386.00    924.00      0.00      0.00      0.00      0.00      0.00      0.00 0 0 0 0   0.0000 0 0 0 0
     36    474.54     90.98    336.00   -179.00  1.0200    100.00 1    588.00    140.00      0.00      0.00      0.00      0.00      0.00      0.00 0 0 0 0   0.0000 0 0 0 0
     37    457.59     62.50    324.00   -173.00  1.0200    100.00 1    567.00    100.00      0.00      0.00      0.00      0.00      0.00      0.00 0 0 0 0   0.0000 0 0 0 0
     38    703.73     81.08    498.00   -266.00  1.0200    100.00 1    872.00    208.00      0.00      0.00      0.00      0.00      0.00      0.00 0 0 0 0   0.0000 0 0 0 0
     49    489.87    156.74    347.00   -185.00  1.0200    100.00 1    607.00    320.00      0.00      0.00      0.00      0.00      0.00      0.00 0 0 0 0   0.0000 0 0 0 0
     52   1325.15    206.29    938.00   -500.00  1.0200    100.00 1   1642.00    162.00      0.00      0.00      0.00      0.00      0.00      0.00 0 0 0 0   0.0000 0 0 0 0
     54    440.64     20.61    312.00   -166.00  1.0200    100.00 1    546.00    208.00      0.00      0.00      0.00      0.00      0.00      0.00 0 0 0 0   0.0000 0 0 0 0
     56    587.52    314.39    416.00   -222.00  1.0200    100.00 1    728.00    416.00      0.00      0.00      0.00      0.00      0.00      0.00 0 0 0 0   0.0000 0 0 0 0
     69    419.66    170.62    297.00   -158.00  1.0200    100.00 1    520.00    149.00      0.00      0.00      0.00      0.00      0.00      0.00 0 0 0 0   0.0000 0 0 0 0
     72    212.25    150.00    150.00    -80.00  1.0200    100.00 1    263.00     85.00      0.00      0.00      0.00      0.00      0.00      0.00 0 0 0 0   0.0000 0 0 0 0
     76    711.80    299.01    504.00   -269.00  1.0200    100.00 1    882.00    435.00      0.00      0.00      0.00      0.00      0.00      0.00 0 0 0 0   0.0000 0 0 0 0
     78    232.43    -22.92    165.00    -88.00  1.0200    100.00 1    288.00    130.00      0.00      0.00      0.00      0.00      0.00      0.00 0 0 0 0   0.0000 0 0 0 0
     80    466.47    -45.33    330.00   -176.00  1.0200    100.00 1    578.00    113.00      0.00      0.00      0.00      0.00      0.00      0.00 0 0 0 0   0.0000 0 0 0 0
     82    252.60    -30.02    179.00    -95.00  1.0200    100.00 1    313.00    176.00      0.00      0.00      0.00      0.00      0.00      0.00 0 0 0 0   0.0000 0 0 0 0
     84    716.65     68.69    508.00   -271.00  1.0200    100.00 1    888.00    169.00      0.00      0.00      0.00      0.00      0.00      0.00 0 0 0 0   0.0000 0 0 0 0
    103    739.24    216.59    523.00   -279.00  1.0200    100.00 1    916.00    208.00      0.00      0.00      0.00      0.00      0.00      0.00 0 0 0 0   0.0000 0 0 0 0
    120    681.94    343.03    483.00   -258.00  1.0200    100.00 1    845.00    161.00      0.00      0.00      0.00      0.00      0.00      0.00 0 0 0 0   0.0000 0 0 0 0
    128    305.06     60.09    216.00   -115.00  1.0200    100.00 1    378.00    180.00      0.00      0.00      0.00      0.00      0.00      0.00 0 0 0 0   0.0000 0 0 0 0
    130    215.48     78.44    153.00    -81.00  1.0200    100.00 1    267.00    115.00      0.00      0.00      0.00      0.00      0.00      0.00 0 0 0 0   0.0000 0 0 0 0
    141   1364.70    286.29    967.00   -515.00  1.0200    100.00 1   1691.00    877.00      0.00      0.00      0.00      0.00      0.00      0.00 0 0 0 0   0.0000 0 0 0 0
    143    244.53    173.00    173.00    -92.00  1.0200    100.00 1    303.00    155.00      0.00      0.00      0.00      0.00      0.00      0.00 0 0 0 0   0.0000 0 0 0 0
    146    489.87    347.00    347.00   -185.00  1.0200    100.00 1    607.00    300.00      0.00      0.00      0.00      0.00      0.00      0.00 0 0 0 0   0.0000 0 0 0 0
    149    221.13    132.53    157.00    -83.00  1.0200    100.00 1    274.00    186.00      0.00      0.00      0.00      0.00      0.00      0.00 0 0 0 0   0.0000 0 0 0 0
    157    420.47     66.63    298.00   -159.00  1.0200    100.00 1    521.00    288.00      0.00      0.00      0.00      0.00      0.00      0.00 0 0 0 0   0.0000 0 0 0 0
    162    513.27    123.91    363.00   -194.00  1.0200    100.00 1    636.00    230.00      0.00      0.00      0.00      0.00      0.00      0.00 0 0 0 0   0.0000 0 0 0 0
    165   1052.37    135.68    745.00   -397.00  1.0200    100.00 1   1304.00    782.00      0.00      0.00      0.00      0.00      0.00      0.00 0 0 0 0   0.0000 0 0 0 0
    166    669.84    133.29    474.00   -253.00  1.0200    100.00 1    830.00    277.00      0.00      0.00      0.00      0.00      0.00      0.00 0 0 0 0   0.0000 0 0 0 0
    175    505.20     84.64    358.00   -191.00  1.0200    100.00 1    626.00    209.00      0.00      0.00      0.00      0.00      0.00      0.00 0 0 0 0   0.0000 0 0 0 0
    176    215.48     37.59    153.00    -81.00  1.0200    100.00 1    267.00     86.00      0.00      0.00      0.00      0.00      0.00      0.00 0 0 0 0   0.0000 0 0 0 0
];

%% generator cost data
mpc.gencost = [
2 0 0 4   0.0000    0.001   17.500   450.00
2 0 0 4   0.0000    0.001   24.757  1505.67
2 0 0 4   0.0000    0.002   24.400  3342.77
2 0 0 4   0.0000    0.005   30.562  1114.42
2 0 0 4   0.0000    0.001   25.697  6313.07
2 0 0 4   0.0000    0.002   27.100  1297.89
2 0 0 4   0.0000    0.005   27.249   783.88
2 0 0 4   0.0000    0.002   26.174  1372.76
2 0 0 4   0.0000    0.006   26.053   655.13
2 0 0 4   0.0000    0.002   29.298  3418.85
2 0 0 4   0.0000    0.002   29.135  1458.22
2 0 0 4   0.0000    0.001   23.899  4734.80
2 0 0 4   0.0000    0.004   29.960  3677.05
2 0 0 4   0.0000    0.001   26.605  6691.85
2 0 0 4   0.0000    0.002   26.400  3342.77
2 0 0 4   0.0000    0.004   52.785  7415.02
2 0 0 4   0.0000    0.003   27.114  3844.19
2 0 0 4   0.0000    0.002   25.878  1390.96
2 0 0 4   0.0000    0.003   21.871  2841.36
2 0 0 4   0.0000    0.002   26.558  1284.25
2 0 0 4   0.0000    0.001   24.540  1581.44
2 0 0 4   0.0000    0.002   25.780  3523.95
2 0 0 4   0.0000    0.003   22.330  2325.41
2 0 0 4   0.0000    0.001   25.323  1978.07
2 0 0 4   0.0000    0.005   26.473   732.25
2 0 0 4   0.0000    0.002   26.356  1347.98
2 0 0 4   0.0000    0.008   27.364   550.89
2 0 0 4   0.0000    0.004   31.864  3610.20
2 0 0 4   0.0000    0.001   25.117  2036.75
2 0 0 4   0.0000    0.004   32.314  3777.33
2 0 0 4   0.0000    0.004   26.167   947.57
2 0 0 4   0.0000    0.006   27.791   710.04
2 0 0 4   0.0000    0.003   27.697  4313.07
2 0 0 4   0.0000    0.005   26.616   773.70
2 0 0 4   0.0000    0.002   26.010  1398.04
2 0 0 4   0.0000    0.006   27.475   721.30
2 0 0 4   0.0000    0.006   32.756  1215.71
2 0 0 4   0.0000    0.002   25.916  1460.47
2 0 0 4   0.0000    0.001   26.918  6534.03
2 0 0 4   0.0000    0.001   25.325  1860.51
2 0 0 4   0.0000    0.002   25.962  1438.95
2 0 0 4   0.0000    0.006   27.924   713.43
];

%% branch data
mpc.branch = [
      1       2  0.005978  0.120624   1.98515    414.51    414.51    414.51 1.00000    0.000 1    0.00    0.00    272.78    -73.39   -268.45    -45.93 0 0 0 0
      2      30  0.000000  0.018100   0.00000   1000.00   1000.00   1000.00 1.00000    0.000 1    0.00    0.00   -212.25      6.34    212.25      1.50 0 0 0 0
      2      39  0.008680  0.060198   0.52937    530.03    530.03    530.03 1.00000    0.000 1    0.00    0.00    201.46    -32.40   -198.07      1.14 0 0 0 0
      2     139  0.003390  0.023178   0.20974    530.03    530.03    530.03 1.00000    0.000 1    0.00    0.00    156.05     29.64   -155.21    -45.40 0 0 0 0
      2     181  0.007607  0.052755   0.46393    530.03    530.03    530.03 1.00000    0.000 1    0.00    0.00   -224.00      7.46    227.74    -30.18 0 0 0 0
      2     201  0.002742  0.018748   0.16965    530.03    530.03    530.03 1.00000    0.000 1    0.00    0.00    221.39     -6.37   -220.10     -2.37 0 0 0 0
      3      18  0.003829  0.158129   0.09685    316.20    316.20    316.20 1.00000    0.000 1    0.00    0.00    191.41     36.77   -189.99     11.76 0 0 0 0
      3     181  0.000638  0.030000   0.00000    400.00    400.00    400.00 1.00000    0.000 1    0.00    0.00    362.22    -14.69   -361.41     52.59 0 0 0 0
      4      75  0.016845  0.038117   0.00951    107.32    107.32    107.32 1.00000    0.000 1    0.00    0.00     44.08    -12.03    -43.73     11.92 0 0 0 0
      4     182  0.000889  0.040000   0.00000    300.00    300.00    300.00 1.00000    0.000 1    0.00    0.00   -160.56    -11.17    160.79     21.77 0 0 0 0
      5       8  0.002959  0.039331   0.08406    578.83    578.83    578.83 1.00000    0.000 1    0.00    0.00   -276.99    -36.26    279.32     58.75 0 0 0 0
      5     183  0.001261  0.046667   0.00000    150.00    150.00    150.00 1.00000    0.000 1    0.00    0.00    -76.18    -24.20     76.26     27.22 0 0 0 0
      5     184  0.045023  0.111012   0.17939    178.87    178.87    178.87 1.00000    0.000 1    0.00    0.00    -43.08      3.82     44.00    -19.37 0 0 0 0
      5     207  0.001124  0.013276   0.03027    541.39    541.39    541.39 1.00000    0.000 1    0.00    0.00    263.40      9.39   -262.61     -3.01 0 0 0 0
      6       7  0.062002  0.145750   0.03365    107.32    107.32    107.32 1.00000    0.000 1    0.00    0.00     11.56    -19.91    -11.27     17.15 0 0 0 0
      6      31  0.000000  0.025000   0.00000   1100.00   1100.00   1100.00 1.00000    0.000 1    0.00    0.00   -645.63    -27.75    645.63    132.10 0 0 0 0
      6      70  0.033638  0.077688   0.01859    107.32    107.32    107.32 1.00000    0.000 1    0.00    0.00    -35.41     27.78     36.11    -28.01 0 0 0 0
      6     184  0.000297  0.014545   0.00000    550.00    550.00    550.00 1.00000    0.000 1    0.00    0.00    321.21      2.18   -320.90     12.82 0 0 0 0
      6     185  0.000556  0.026667   0.00000    450.00    450.00    450.00 1.00000    0.000 1    0.00    0.00    228.24    -21.04   -227.95     35.04 0 0 0 0
      7     186  0.000336  0.017143   0.00000    700.00    700.00    700.00 1.00000    0.000 1    0.00    0.00    354.75    123.59   -354.29   -100.33 0 0 0 0
      8      54  0.000326  0.005080   0.01216    665.28    665.28    665.28 1.00000    0.000 1    0.00    0.00   -329.49     23.22    329.84    -19.15 0 0 0 0
      8     187  0.000196  0.010000   0.00000    700.00    700.00    700.00 1.00000    0.000 1    0.00    0.00    377.59     39.64   -377.32    -25.78 0 0 0 0
    187       9  0.006838  0.047422   0.41703    530.03    530.03    530.03 1.00000    0.000 1    0.00    0.00      0.03    -43.27      0.00      0.00 0 0 0 0
     10      11  0.000315  0.008557   0.00495    566.01    566.01    566.01 1.00000    0.000 1    0.00    0.00    307.08     44.18   -306.79    -36.77 0 0 0 0
     10      32  0.000000  0.020000   0.00000   1000.00   1000.00   1000.00 1.00000    0.000 1    0.00    0.00   -551.20     29.29    551.21     29.28 0 0 0 0
     10      70  0.005799  0.067267   0.02063    324.83    324.83    324.83 1.00000    0.000 1    0.00    0.00    178.15     38.46   -176.29    -19.02 0 0 0 0
     10     188  0.000073  0.003750   0.00000   3200.00   3200.00   3200.00 1.00000    0.000 1    0.00    0.00   2110.26    174.37  -2107.09    -12.77 0 0 0 0
     12      11  0.001279  0.043500   0.00000    100.00    100.00    100.00 1.00000    0.000 1    0.00    0.00    -42.20     -1.33     42.22      2.08 0 0 0 0
     11     173  0.016673  0.124076   0.03486    237.35    237.35    237.35 1.00000    0.000 1    0.00    0.00    154.94     32.67   -150.87     -5.79 0 0 0 0
     11     189  0.001500  0.060000   0.00000    200.00    200.00    200.00 1.00000    0.000 1    0.00    0.00    109.63      2.02   -109.45      4.97 0 0 0 0
     12      13  0.003529  0.120000   0.00000    100.00    100.00    100.00 1.00000    0.000 1    0.00    0.00     38.51     -0.03    -38.46      1.76 0 0 0 0
    188      13  0.000109  0.001949   0.02003   1045.73   1045.73   1045.73 1.00000    0.000 1    0.00    0.00    612.88     16.41   -612.48    -11.36 0 0 0 0
     13     190  0.000846  0.017908   0.26779   1060.07   1060.07   1060.07 1.00000    0.000 1    0.00    0.00    650.94      9.60   -647.45     36.82 0 0 0 0
     14      15  0.036111  0.089040   0.14388    178.87    178.87    178.87 1.00000    0.000 1    0.00    0.00     75.44    -15.24    -73.39      5.91 0 0 0 0
     14     177  0.018818  0.067761   0.11459    229.46    229.46    229.46 1.00000    0.000 1    0.00    0.00    130.07    -28.86   -126.84     28.90 0 0 0 0
     14     190  0.000233  0.011667   0.00000    600.00    600.00    600.00 1.00000    0.000 1    0.00    0.00   -366.94    -10.51    367.25     25.98 0 0 0 0
     15      61  0.004135  0.027504   0.05200    353.36    353.36    353.36 1.00000    0.000 1    0.00    0.00    171.61    -44.26   -170.30     47.87 0 0 0 0
    184      15  0.003431  0.042042   0.08894    541.39    541.39    541.39 1.00000    0.000 1    0.00    0.00    267.09     11.39   -264.63      9.89 0 0 0 0
     15     191  0.002059  0.070000   0.00000    100.00    100.00    100.00 1.00000    0.000 1    0.00    0.00    -29.82    -28.56     29.85     29.78 0 0 0 0
     16     149  0.014227  0.046950   0.01231    137.68    137.68    137.68 1.00000    0.000 1    0.00    0.00     39.19    -54.97    -38.55     55.82 0 0 0 0
     16     192  0.001000  0.040000   0.00000    200.00    200.00    200.00 1.00000    0.000 1    0.00    0.00   -109.88      2.30    110.00      2.54 0 0 0 0
     16     193  0.001116  0.048000   0.00000    250.00    250.00    250.00 1.00000    0.000 1    0.00    0.00   -156.12     -9.59    156.39     21.34 0 0 0 0
     17      18  0.056699  0.194499   0.04709    137.68    137.68    137.68 1.00000    0.000 1    0.00    0.00    -50.12     14.76     51.74    -13.86 0 0 0 0
     17     145  0.046728  0.104525   0.02669    107.32    107.32    107.32 1.00000    0.000 1    0.00    0.00     26.62     -1.66    -26.28     -0.18 0 0 0 0
     17     194  0.002162  0.080000   0.00000    150.00    150.00    150.00 1.00000    0.000 1    0.00    0.00    -97.35    -16.22     97.57     24.15 0 0 0 0
     19      20  0.000426  0.020000   0.00000    400.00    400.00    400.00 1.00000    0.000 1    0.00    0.00   -734.76     94.42    737.12     16.59 0 0 0 0
     19      33  0.000700  0.014200   0.00000   1000.00   1000.00   1000.00 1.00000    0.000 1    0.00    0.00   -348.87   -154.46    349.90    175.37 0 0 0 0
     19      96  0.055097  0.129519   0.02990    107.32    107.32    107.32 1.00000    0.000 1    0.00    0.00     45.81    -12.57    -44.57     12.55 0 0 0 0
     19     105  0.000528  0.012761   0.00724    522.03    522.03    522.03 1.00000    0.000 1    0.00    0.00    343.11     17.88   -342.48     -3.36 0 0 0 0
     19     110  0.005086  0.023707   0.00609    173.53    173.53    173.53 1.00000    0.000 1    0.00    0.00     92.99     26.90    -92.51    -25.24 0 0 0 0
     19     118  0.000642  0.013449   0.00755    474.70    474.70    474.70 1.00000    0.000 1    0.00    0.00    412.39      3.14   -411.28     19.25 0 0 0 0
     19     175  0.056202  0.251624   0.07017    173.53    173.53    173.53 1.00000    0.000 1    0.00    0.00    -50.32      0.90     51.78     -1.53 0 0 0 0
     19     195  0.002353  0.080000   0.00000    100.00    100.00    100.00 1.00000    0.000 1    0.00    0.00     76.05     -8.94    -75.91     13.68 0 0 0 0
     19     196  0.003529  0.120000   0.00000    100.00    100.00    100.00 1.00000    0.000 1    0.00    0.00     20.32     -3.94    -20.31      4.46 0 0 0 0
     20      34  0.000900  0.018000   0.00000    600.00    600.00    600.00 1.00000    0.000 1    0.00    0.00   -876.83    -54.60    883.93    196.45 0 0 0 0
     21     129  0.006980  0.035005   0.01005    187.39    187.39    187.39 1.00000    0.000 1    0.00    0.00    103.18     -8.03   -102.43     10.77 0 0 0 0
     21     130  0.007383  0.060698   0.01884    261.01    261.01    261.01 1.00000    0.000 1    0.00    0.00    -95.64    -17.09     96.34     20.85 0 0 0 0
     21     197  0.001441  0.053333   0.00000    150.00    150.00    150.00 1.00000    0.000 1    0.00    0.00    -77.66     -2.72     77.75      5.93 0 0 0 0
     21     198  0.001500  0.060000   0.00000    200.00    200.00    200.00 1.00000    0.000 1    0.00    0.00   -129.08      5.99    129.33      3.99 0 0 0 0
     22      23  0.013985  0.034482   0.05572    178.87    178.87    178.87 1.00000    0.000 1    0.00    0.00    -47.86      0.01     48.18     -4.77 0 0 0 0
     22      35  0.000000  0.014300   0.00000   1950.00   1950.00   1950.00 1.00000    0.000 1    0.00    0.00  -1118.55    -82.04   1118.55    263.56 0 0 0 0
     22     199  0.000131  0.006667   0.00000   1050.00   1050.00   1050.00 1.00000    0.000 1    0.00    0.00    988.12     31.20   -986.83     34.55 0 0 0 0
     23      24  0.043009  0.106048   0.17137    178.87    178.87    178.87 1.00000    0.000 1    0.00    0.00     40.13    -40.97    -38.99     26.28 0 0 0 0
     23      36  0.000500  0.027200   0.00000   1000.00   1000.00   1000.00 1.00000    0.000 1    0.00    0.00   -473.41    -29.94    474.54     90.98 0 0 0 0
     23      90  0.006901  0.020365   0.03648    206.75    206.75    206.75 1.00000    0.000 1    0.00    0.00    113.24     36.43   -112.26    -37.13 0 0 0 0
     23      91  0.012793  0.054395   0.09557    262.53    262.53    262.53 1.00000    0.000 1    0.00    0.00    137.54     -4.65   -135.13      5.47 0 0 0 0
     24     177  0.002078  0.014281   0.02528    353.36    353.36    353.36 1.00000    0.000 1    0.00    0.00    175.11     92.69   -174.32    -89.85 0 0 0 0
     24     200  0.000372  0.017500   0.00000    400.00    400.00    400.00 1.00000    0.000 1    0.00    0.00    136.66     69.42   -136.57    -65.47 0 0 0 0
     25      37  0.000600  0.023200   0.00000   1000.00   1000.00   1000.00 1.00000    0.000 1    0.00    0.00   -456.36    -14.94    457.59     62.50 0 0 0 0
     25     133  0.006133  0.048676   0.09258    395.58    395.58    395.58 1.00000    0.000 1    0.00    0.00    231.36     -7.82   -228.13     24.09 0 0 0 0
     25     168  0.018164  0.045274   0.07160    178.87    178.87    178.87 1.00000    0.000 1    0.00    0.00     89.54      9.36    -88.08    -12.85 0 0 0 0
     25     201  0.001261  0.046667   0.00000    150.00    150.00    150.00 1.00000    0.000 1    0.00    0.00     48.53    -14.60    -48.50     15.78 0 0 0 0
     26      42  0.007136  0.049490   0.43522    530.03    530.03    530.03 1.00000    0.000 1    0.00    0.00    -65.44     13.92     65.82    -55.97 0 0 0 0
     26      43  0.001333  0.009112   0.08245    530.03    530.03    530.03 1.00000    0.000 1    0.00    0.00    136.35     42.66   -136.09    -49.37 0 0 0 0
     26     202  0.010447  0.072454   0.63716    530.03    530.03    530.03 1.00000    0.000 1    0.00    0.00     65.98    -34.44    -65.55    -28.51 0 0 0 0
     27     160  0.022175  0.054676   0.08835    178.87    178.87    178.87 1.00000    0.000 1    0.00    0.00     13.73     27.22    -13.47    -35.27 0 0 0 0
     27     202  0.000519  0.023333   0.00000    300.00    300.00    300.00 1.00000    0.000 1    0.00    0.00   -146.50    -49.56    146.63     55.11 0 0 0 0
     28      77  0.066564  0.156472   0.03612    107.32    107.32    107.32 1.00000    0.000 1    0.00    0.00     28.33     -4.26    -27.82      1.77 0 0 0 0
     28      88  0.001156  0.018601   0.00608    418.29    418.29    418.29 1.00000    0.000 1    0.00    0.00    213.43     35.32   -212.91    -27.57 0 0 0 0
     28     203  0.005926  0.160000   0.00000     50.00     50.00     50.00 1.00000    0.000 1    0.00    0.00     15.33      6.42    -15.31     -5.99 0 0 0 0
     28     204  0.003529  0.120000   0.00000    100.00    100.00    100.00 1.00000    0.000 1    0.00    0.00     54.10      3.62    -54.00     -0.23 0 0 0 0
     29      38  0.000800  0.015600   0.00000   1200.00   1200.00   1200.00 1.00000    0.000 1    0.00    0.00   -699.88     -5.84    703.74     81.08 0 0 0 0
     29      84  0.009549  0.091679   0.02681    283.00    283.00    283.00 1.00000    0.000 1    0.00    0.00    130.46    -20.54   -128.83     33.48 0 0 0 0
     29     205  0.000209  0.010667   0.00000    750.00    750.00    750.00 1.00000    0.000 1    0.00    0.00    466.95     -6.65   -466.50     29.56 0 0 0 0
     39      43  0.005771  0.040026   0.35199    530.03    530.03    530.03 1.00000    0.000 1    0.00    0.00     98.54    -32.58    -97.98      0.28 0 0 0 0
     40      43  0.003602  0.023140   0.23770    530.03    530.03    530.03 1.00000    0.000 1    0.00    0.00   -100.07    -29.37    100.44      7.47 0 0 0 0
    202      41  0.002711  0.018804   0.16536    530.03    530.03    530.03 1.00000    0.000 1    0.00    0.00    130.64      5.09   -130.19    -18.89 0 0 0 0
     42     167  0.006872  0.049342   0.40438    530.03    530.03    530.03 1.00000    0.000 1    0.00    0.00   -210.46     11.93    213.53    -31.09 0 0 0 0
     44      55  0.007424  0.027027   0.04470    229.46    229.46    229.46 1.00000    0.000 1    0.00    0.00    115.40    -10.15   -114.42      9.21 0 0 0 0
     44     206  0.000372  0.017500   0.00000    400.00    400.00    400.00 1.00000    0.000 1    0.00    0.00   -229.95    -28.03    230.15     37.29 0 0 0 0
     45      52  0.000887  0.008362   0.07659    652.53    652.53    652.53 1.00000    0.000 1    0.00    0.00   -378.38    -52.07    379.64     56.04 0 0 0 0
    206      45  0.000420  0.002856   0.02611    530.03    530.03    530.03 1.00000    0.000 1    0.00    0.00    171.56     20.32   -171.44    -22.17 0 0 0 0
     45     212  0.001035  0.009761   0.08940    652.53    652.53    652.53 1.00000    0.000 1    0.00    0.00    382.30     19.70   -380.82    -14.83 0 0 0 0
     46      47  0.016826  0.106284   0.02894    212.01    212.01    212.01 1.00000    0.000 1    0.00    0.00    112.15      3.07   -109.98      7.89 0 0 0 0
     46     207  0.000370  0.017778   0.00000    450.00    450.00    450.00 1.00000    0.000 1    0.00    0.00   -262.35     -0.24    262.61     12.80 0 0 0 0
     47      63  0.038101  0.089565   0.02068    107.32    107.32    107.32 1.00000    0.000 1    0.00    0.00    -24.37      0.90     24.61     -2.30 0 0 0 0
     48     150  0.003523  0.024436   0.21489    530.03    530.03    530.03 1.00000    0.000 1    0.00    0.00    155.29    -17.28   -154.41      2.44 0 0 0 0
    182      48  0.003417  0.023699   0.20841    530.03    530.03    530.03 1.00000    0.000 1    0.00    0.00    321.25     -5.87   -317.70      9.97 0 0 0 0
     49      65  0.001800  0.037712   0.02118    474.70    474.70    474.70 1.00000    0.000 1    0.00    0.00    221.93     68.70   -220.99    -51.23 0 0 0 0
     49     208  0.001000  0.040000   0.00000    200.00    200.00    200.00 1.00000    0.000 1    0.00    0.00     88.46     25.68    -88.38    -22.42 0 0 0 0
     49     209  0.001500  0.060000   0.00000    200.00    200.00    200.00 1.00000    0.000 1    0.00    0.00     75.32     29.16    -75.23    -25.40 0 0 0 0
     50      65  0.005258  0.037515   0.01148    237.35    237.35    237.35 1.00000    0.000 1    0.00    0.00   -112.50     -6.69    113.19     10.48 0 0 0 0
     50     210  0.003529  0.120000   0.00000    100.00    100.00    100.00 1.00000    0.000 1    0.00    0.00    -45.48     -9.33     45.55     12.00 0 0 0 0
     51      68  0.004060  0.037344   0.01192    283.00    283.00    283.00 1.00000    0.000 1    0.00    0.00   -103.53     13.06    104.00     -9.90 0 0 0 0
     51      72  0.000709  0.007194   0.00234    304.04    304.04    304.04 1.00000    0.000 1    0.00    0.00    -27.45    -58.63     27.48     58.72 0 0 0 0
    183      52  0.002047  0.021637   0.20301    707.51    707.51    707.51 1.00000    0.000 1    0.00    0.00   -370.52    -25.11    373.30     33.66 0 0 0 0
    206      52  0.000643  0.006662   0.06506    707.51    707.51    707.51 1.00000    0.000 1    0.00    0.00   -401.71    -57.62    402.74     61.54 0 0 0 0
     53      57  0.006894  0.059124   0.01683    261.01    261.01    261.01 1.00000    0.000 1    0.00    0.00     93.44    -23.22    -92.76     27.41 0 0 0 0
     53      73  0.003976  0.033438   0.00991    261.01    261.01    261.01 1.00000    0.000 1    0.00    0.00     29.64    -18.14    -29.59     17.62 0 0 0 0
     53     211  0.000369  0.018462   0.00000    650.00    650.00    650.00 1.00000    0.000 1    0.00    0.00   -372.93    -36.03    373.48     63.52 0 0 0 0
     55      61  0.034539  0.120369   0.21762    229.46    229.46    229.46 1.00000    0.000 1    0.00    0.00     98.64    -28.56    -95.18     18.91 0 0 0 0
    208      55  0.006202  0.018912   0.03169    206.75    206.75    206.75 1.00000    0.000 1    0.00    0.00     81.22     17.63    -80.80    -19.55 0 0 0 0
     55     212  0.001261  0.046667   0.00000    150.00    150.00    150.00 1.00000    0.000 1    0.00    0.00    -64.56     -9.11     64.61     11.09 0 0 0 0
    185      56  0.000908  0.009601   0.09009    707.51    707.51    707.51 1.00000    0.000 1    0.00    0.00    265.46   -168.46   -264.58    168.44 0 0 0 0
    191      56  0.000301  0.008151   0.12418   1246.50   1246.50   1246.50 1.00000    0.000 1    0.00    0.00   -668.14    -69.01    669.47     92.07 0 0 0 0
     57      60  0.018675  0.042258   0.01054    107.32    107.32    107.32 1.00000    0.000 1    0.00    0.00     -3.50    -11.45      3.52     10.49 0 0 0 0
     58      62  0.002141  0.014851   0.13060    530.03    530.03    530.03 1.00000    0.000 1    0.00    0.00    162.61     47.74   -161.96    -55.92 0 0 0 0
     58      66  0.001447  0.010038   0.08828    530.03    530.03    530.03 1.00000    0.000 1    0.00    0.00    -44.91    -49.08     44.97     40.80 0 0 0 0
    185      58  0.002185  0.015152   0.13324    530.03    530.03    530.03 1.00000    0.000 1    0.00    0.00    325.70     65.98   -323.30    -62.59 0 0 0 0
    191      59  0.000938  0.006385   0.05837    530.03    530.03    530.03 1.00000    0.000 1    0.00    0.00    303.45     60.70   -302.57    -60.63 0 0 0 0
     59     213  0.000907  0.006172   0.05642    530.03    530.03    530.03 1.00000    0.000 1    0.00    0.00    175.44     20.55   -175.16    -24.32 0 0 0 0
     60      63  0.017610  0.040671   0.00973    107.32    107.32    107.32 1.00000    0.000 1    0.00    0.00     11.45      9.80    -11.40    -10.64 0 0 0 0
     60      64  0.005655  0.040347   0.01235    237.35    237.35    237.35 1.00000    0.000 1    0.00    0.00   -160.26     21.04    161.78    -11.37 0 0 0 0
     61     143  0.002057  0.016137   0.03143    395.58    395.58    395.58 1.00000    0.000 1    0.00    0.00    138.26    -58.69   -137.79     59.19 0 0 0 0
    192      61  0.004667  0.025655   0.04713    312.32    312.32    312.32 1.00000    0.000 1    0.00    0.00   -127.95     41.56    128.80    -41.57 0 0 0 0
     61     213  0.000519  0.023333   0.00000    300.00    300.00    300.00 1.00000    0.000 1    0.00    0.00   -175.00    -17.05    175.16     24.32 0 0 0 0
     63      75  0.005417  0.046454   0.01323    261.01    261.01    261.01 1.00000    0.000 1    0.00    0.00   -137.67      5.25    138.74      2.68 0 0 0 0
     64     214  0.000336  0.017143   0.00000    700.00    700.00    700.00 1.00000    0.000 1    0.00    0.00   -424.92     -0.89    425.54     32.62 0 0 0 0
     66      71  0.001271  0.008811   0.07749    530.03    530.03    530.03 1.00000    0.000 1    0.00    0.00   -169.53    -85.91    169.99     81.33 0 0 0 0
     67      68  0.002882  0.026509   0.00846    283.00    283.00    283.00 1.00000    0.000 1    0.00    0.00   -147.97    -15.43    148.65     20.94 0 0 0 0
     68     215  0.000336  0.017143   0.00000    700.00    700.00    700.00 1.00000    0.000 1    0.00    0.00   -430.07    -70.48    430.74    104.79 0 0 0 0
    189      69  0.001131  0.007735   0.06999    530.03    530.03    530.03 1.00000    0.000 1    0.00    0.00    -39.03    -64.79     39.09     57.94 0 0 0 0
     69     247  0.002929  0.020317   0.17866    530.03    530.03    530.03 1.00000    0.000 1    0.00    0.00    281.15     74.16   -278.72    -75.53 0 0 0 0
     71      76  0.001422  0.009863   0.08674    530.03    530.03    530.03 1.00000    0.000 1    0.00    0.00   -279.01   -121.05    280.30    121.11 0 0 0 0
     72      73  0.000275  0.004586   0.00284    424.03    424.03    424.03 1.00000    0.000 1    0.00    0.00     88.43     55.40    -88.40    -55.15 0 0 0 0
    182      74  0.000498  0.003455   0.03038    530.03    530.03    530.03 1.00000    0.000 1    0.00    0.00     90.86     51.29    -90.80    -53.91 0 0 0 0
    210      74  0.001292  0.011415   0.10343    623.25    623.25    623.25 1.00000    0.000 1    0.00    0.00    272.28      5.85   -271.32     -7.63 0 0 0 0
     74     216  0.000640  0.004357   0.03984    530.03    530.03    530.03 1.00000    0.000 1    0.00    0.00    233.12     22.18   -232.77    -23.69 0 0 0 0
     75     216  0.000638  0.030000   0.00000    400.00    400.00    400.00 1.00000    0.000 1    0.00    0.00   -232.41     -7.00    232.77     23.69 0 0 0 0
    190      76  0.001435  0.009955   0.08755    530.03    530.03    530.03 1.00000    0.000 1    0.00    0.00    169.32   -117.83   -168.74    112.84 0 0 0 0
     76     238  0.003386  0.047034   0.46520    868.25    868.25    868.25 1.00000    0.000 1    0.00    0.00    412.98     16.66   -407.38     13.49 0 0 0 0
     77      84  0.006198  0.069744   0.01841    304.04    304.04    304.04 1.00000    0.000 1    0.00    0.00   -148.15     -0.23    149.49     13.46 0 0 0 0
     77      89  0.016077  0.099621   0.02821    212.01    212.01    212.01 1.00000    0.000 1    0.00    0.00    101.57    -10.69    -99.92     18.07 0 0 0 0
     77     217  0.005926  0.160000   0.00000     50.00     50.00     50.00 1.00000    0.000 1    0.00    0.00     -4.88     -0.91      4.88      0.95 0 0 0 0
     77     218  0.003529  0.120000   0.00000    100.00    100.00    100.00 1.00000    0.000 1    0.00    0.00    -23.95     -9.19     23.97      9.97 0 0 0 0
     78      79  0.014099  0.097781   0.85988    511.35    511.35    511.35 1.00000    0.000 1    0.00    0.00     57.14    -58.02    -56.68    -28.77 0 0 0 0
     78     167  0.005724  0.038942   0.35603    530.03    530.03    530.03 1.00000    0.000 1    0.00    0.00     48.43     -2.66    -48.29    -33.09 0 0 0 0
     79      87  0.008106  0.052075   0.53493    530.03    530.03    530.03 1.00000    0.000 1    0.00    0.00   -112.57    -17.07    113.55    -33.23 0 0 0 0
     80      81  0.005975  0.042908   0.35164    530.03    530.03    530.03 1.00000    0.000 1    0.00    0.00     56.15    -16.66    -55.97    -18.49 0 0 0 0
     80      87  0.003558  0.071801   1.18166    696.37    696.37    696.37 1.00000    0.000 1    0.00    0.00    274.65    -65.11   -272.07     -7.13 0 0 0 0
     81      82  0.007764  0.053845   0.47351    530.03    530.03    530.03 1.00000    0.000 1    0.00    0.00    -90.19    -16.27     90.80    -28.54 0 0 0 0
     82      83  0.007662  0.053138   0.46730    530.03    530.03    530.03 1.00000    0.000 1    0.00    0.00     59.43    -30.68    -59.17    -16.08 0 0 0 0
     83     219  0.005009  0.034736   0.30546    530.03    530.03    530.03 1.00000    0.000 1    0.00    0.00    -48.28    -14.91     48.39    -16.12 0 0 0 0
     84     219  0.000224  0.011429   0.00000   1050.00   1050.00   1050.00 1.00000    0.000 1    0.00    0.00    613.40     -4.93   -612.59     46.26 0 0 0 0
     85     154  0.017306  0.084819   0.15179    289.22    289.22    289.22 1.00000    0.000 1    0.00    0.00    203.82    -21.85   -196.66     41.75 0 0 0 0
    217      85  0.004299  0.043533   0.08806    471.67    471.67    471.67 1.00000    0.000 1    0.00    0.00    298.92     -6.38   -295.13     35.76 0 0 0 0
     86      88  0.044131  0.145633   0.03817    137.68    137.68    137.68 1.00000    0.000 1    0.00    0.00    -73.58     17.35     76.12    -12.80 0 0 0 0
     86     169  0.025279  0.129580   0.03558    187.39    187.39    187.39 1.00000    0.000 1    0.00    0.00     73.54     -7.82    -72.17     11.32 0 0 0 0
     86     220  0.000744  0.032000   0.00000    250.00    250.00    250.00 1.00000    0.000 1    0.00    0.00   -140.12     -3.63    140.27      9.91 0 0 0 0
...